resources/8500_Nodes/IEEE8500_DSS_GLD_v10 - 100.glm
clock {
	timezone EST+5EDT;
	starttime '2000-01-01 12:00:00';
	stoptime '2000-01-01 12:00:01';
}
#set server_portnum= 6267
#set relax_naming_rules=1
#set profiler=1

module powerflow {
	solver_method NR;
	lu_solver "KLU";
	 maximum_voltage_error 1e-3;
	 NR_iteration_limit 28;
	// NR_matrix_file "newfileout.txt";
	// NR_matrix_output_interval PER_CALL;
    // NR_matrix_output_references true;
	line_capacitance FALSE;
};
module tape;

object capacitor {
  name "cap_capbank2a";
  parent "nd_r20185";
  phases AN;
  phases_connected AN;
  cap_nominal_voltage 7200.00;
  capacitor_A 300000;
  control MANUAL;
  VAr_set_low -225000;
  VAr_set_high 150000;
  remote_sense "line_cap_1a";
  pt_phase A;
  control_level BANK;
  time_delay 100.000;
  switchA CLOSED;
}
object capacitor {
  name "cap_capbank2b";
  parent "nd_r20185";
  phases BN;
  phases_connected BN;
  cap_nominal_voltage 7200.00;
  capacitor_B 300000;
  control MANUAL;
  VAr_set_low -225000;
  VAr_set_high 150000;
  remote_sense "line_cap_1b";
  pt_phase B;
  control_level BANK;
  time_delay 101.000;
  switchB CLOSED;
}
object capacitor {
  name "cap_capbank2c";
  parent "nd_r20185";
  phases CN;
  phases_connected CN;
  cap_nominal_voltage 7200.00;
  capacitor_C 300000;
  control MANUAL;
  VAr_set_low -225000;
  VAr_set_high 150000;
  remote_sense "line_cap_1c";
  pt_phase C;
  control_level BANK;
  time_delay 102.000;
  switchC CLOSED;
}

object capacitor {
  name "cap_capbank3";
  parent "nd_r18242";
  phases ABCN;
  phases_connected ABCN;
  cap_nominal_voltage 7200.20;
  capacitor_A 300000;
  capacitor_B 300000;
  capacitor_C 300000;
}

object regulator_configuration {
  name "rcon_FEEDER_REG";
  connect_type WYE_WYE;
  band_center 7590.00;
  band_width 120.000;
  time_delay 15.0000;
  raise_taps 16;
  lower_taps 16;
  regulation 0.100000;
  Control MANUAL;
  current_transducer_ratio 300.000;
  power_transducer_ratio 60.0000;
  compensator_r_setting_A 0.00000;
  compensator_x_setting_A 0.00000;
  compensator_r_setting_B 0.00000;
  compensator_x_setting_B 0.00000;
  compensator_r_setting_C 0.00000;
  compensator_x_setting_C 0.00000;
        tap_pos_A 14;
  tap_pos_B 14;
  tap_pos_C 13;
}
object regulator {
  name "reg_FEEDER_REG";
  from "nd_regxfmr_hvmv_sub_lsb";
  to "nd__hvmv_sub_lsb";
  phases ABC;
  configuration "rcon_FEEDER_REG";
}














object regulator_configuration {
  name "rcon_VREG3";
  connect_type WYE_WYE;
  band_center 7500.00;
  band_width 120.000;
  time_delay 15.0000;
  raise_taps 16;
  lower_taps 16;
  regulation 0.100000;
  Control MANUAL;
  current_transducer_ratio 300.000;
  power_transducer_ratio 60.0000;
  compensator_r_setting_A 0.00000;
  compensator_x_setting_A 0.00000;
  compensator_r_setting_B 0.00000;
  compensator_x_setting_B 0.00000;
  compensator_r_setting_C 0.00000;
  compensator_x_setting_C 0.00000;
        tap_pos_A 11;
  tap_pos_B 8;
  tap_pos_C 0;
  
}
object regulator {
  name "reg_VREG3";
  from "nd_regxfmr_190-8581";
  to "nd_190-8581";
  phases ABC;
  configuration "rcon_VREG3";
}




object regulator_configuration {
  name "rcon_VREG4";
  connect_type WYE_WYE;
  band_center 7500.00;
  band_width 120.000;
  time_delay 15.0000;
  raise_taps 16;
  lower_taps 16;
  regulation 0.100000;
  Control MANUAL;
  current_transducer_ratio 300.000;
  power_transducer_ratio 60.0000;
  compensator_r_setting_A 0.00000;
  compensator_x_setting_A 0.00000;
  compensator_r_setting_B 0.00000;
  compensator_x_setting_B 0.00000;
  compensator_r_setting_C 0.00000;
  compensator_x_setting_C 0.00000;
        tap_pos_A 9;
  tap_pos_B 9;
  tap_pos_C 5;
}
object regulator {
  name "reg_VREG4";
  from "nd_regxfmr_190-7361";
  to "nd_190-7361";
  phases ABC;
  configuration "rcon_VREG4";
}



object regulator_configuration {
  name "rcon_VREG2";
  connect_type WYE_WYE;
  band_center 7500.00;
  band_width 120.000;
  time_delay 15.0000;
  raise_taps 16;
  lower_taps 16;
  regulation 0.100000;
  Control MANUAL;
  current_transducer_ratio 300.000;
  power_transducer_ratio 60.0000;
  compensator_r_setting_A 0.00000;
  compensator_x_setting_A 0.00000;
  compensator_r_setting_B 0.00000;
  compensator_x_setting_B 0.00000;
  compensator_r_setting_C 0.00000;
  compensator_x_setting_C 0.00000;
  tap_pos_A 10;
  tap_pos_B  1;
  tap_pos_C  1;
}
object regulator {
  name "reg_VREG2";
  from "nd_regxfmr_190-8593";
  to "nd_190-8593";
  phases ABC;
  configuration "rcon_VREG2";
}







object transformer_configuration {
  name "xcon_cimxfmrcode_t5138265a";
  connect_type SINGLE_PHASE_CENTER_TAPPED;
  primary_voltage 7200.00;
  secondary_voltage 120.000;
  power_rating 25.0000;
  // the default split puts 50% of R and 80% of X on the H branch
  // resistance 0.0120000;
  // reactance 0.0204000;
  impedance 0.00600000+0.0136000j;
  impedance1 0.0120000+0.00680000j;
  impedance2 0.0120000+0.00680000j;
  shunt_resistance 200 ;
  shunt_reactance 500 ;
}
object transformer_configuration {
  name "xcon_cimxfmrcode_t5391748b";
  connect_type SINGLE_PHASE_CENTER_TAPPED;
  primary_voltage 7200.00;
  secondary_voltage 120.000;
  power_rating 25.0000;
  // the default split puts 50% of R and 80% of X on the H branch
  // resistance 0.0120000;
  // reactance 0.0204000;
  impedance 0.00600000+0.0136000j;
  impedance 0.00600000+0.0136000j;
  impedance1 0.0120000+0.00680000j;
  impedance2 0.0120000+0.00680000j;
  shunt_resistance 200 ;
  shunt_reactance 500 ;
}
object transformer_configuration {
  name "xcon_cimxfmrcode_t5138751b";
  connect_type SINGLE_PHASE_CENTER_TAPPED;
  primary_voltage 7200.00;
  secondary_voltage 120.000;
  power_rating 25.0000;
  // the default split puts 50% of R and 80% of X on the H branch
  // resistance 0.0120000;
  // reactance 0.0204000;
  impedance 0.00600000+0.0136000j;
  impedance1 0.0120000+0.00680000j;
  impedance2 0.0120000+0.00680000j;
  shunt_resistance 200 ;
  shunt_reactance 500 ;
}
object transformer_configuration {
  name "xcon_cimxfmrcode_t227100753a";
  connect_type SINGLE_PHASE_CENTER_TAPPED;
  primary_voltage 7200.00;
  secondary_voltage 120.000;
  power_rating 25.0000;
  // the default split puts 50% of R and 80% of X on the H branch
  // resistance 0.0120000;
  // reactance 0.0204000;
  impedance 0.00600000+0.0136000j;
  impedance1 0.0120000+0.00680000j;
  impedance2 0.0120000+0.00680000j;
  shunt_resistance 200 ;
  shunt_reactance 500 ;
}
object transformer_configuration {
  name "xcon_cimxfmrcode_t5338973a";
  connect_type SINGLE_PHASE_CENTER_TAPPED;
  primary_voltage 7200.00;
  secondary_voltage 120.000;
  power_rating 37.5000;
  // the default split puts 50% of R and 80% of X on the H branch
  // resistance 0.0120000;
  // reactance 0.0204000;
  impedance 0.00600000+0.0136000j;
  impedance1 0.0120000+0.00680000j;
  impedance2 0.0120000+0.00680000j;
  shunt_resistance 200 ;
  shunt_reactance 500 ;
}
object transformer_configuration {
  name "xcon_cimxfmrcode_t5223662c";
  connect_type SINGLE_PHASE_CENTER_TAPPED;
  primary_voltage 7200.00;
  secondary_voltage 120.000;
  power_rating 37.5000;
  // the default split puts 50% of R and 80% of X on the H branch
  // resistance 0.0120000;
  // reactance 0.0204000;
  impedance 0.00600000+0.0136000j;
  impedance1 0.0120000+0.00680000j;
  impedance2 0.0120000+0.00680000j;
  shunt_resistance 200 ;
  shunt_reactance 500 ;
}
object transformer_configuration {
  name "xcon_cimxfmrcode_t228622562a";
  connect_type SINGLE_PHASE_CENTER_TAPPED;
  primary_voltage 7200.00;
  secondary_voltage 120.000;
  power_rating 15.0000;
  // the default split puts 50% of R and 80% of X on the H branch
  // resistance 0.0120000;
  // reactance 0.0204000;
  impedance 0.00600000+0.0136000j;
  impedance1 0.0120000+0.00680000j;
  impedance2 0.0120000+0.00680000j;
  shunt_resistance 200 ;
  shunt_reactance 500 ;
}
object transformer_configuration {
  name "xcon_cimxfmrcode_t227187012b";
  connect_type SINGLE_PHASE_CENTER_TAPPED;
  primary_voltage 7200.00;
  secondary_voltage 120.000;
  power_rating 15.0000;
  // the default split puts 50% of R and 80% of X on the H branch
  // resistance 0.0120000;
  // reactance 0.0204000;
  impedance 0.00600000+0.0136000j;
  impedance1 0.0120000+0.00680000j;
  impedance2 0.0120000+0.00680000j;
  shunt_resistance 200 ;
  shunt_reactance 500 ;
}
object transformer_configuration {
  name "xcon_cimxfmrcode_t227760024a";
  connect_type SINGLE_PHASE_CENTER_TAPPED;
  primary_voltage 7200.00;
  secondary_voltage 120.000;
  power_rating 50.0000;
  // the default split puts 50% of R and 80% of X on the H branch
  // resistance 0.0120000;
  // reactance 0.0204000;
  impedance 0.00600000+0.0136000j;
  impedance1 0.0120000+0.00680000j;
  impedance2 0.0120000+0.00680000j;
  shunt_resistance 200 ;
  shunt_reactance 500 ;
}
object transformer_configuration {
  name "xcon_cimxfmrcode_t226192954c";
  connect_type SINGLE_PHASE_CENTER_TAPPED;
  primary_voltage 7200.00;
  secondary_voltage 120.000;
  power_rating 15.0000;
  // the default split puts 50% of R and 80% of X on the H branch
  // resistance 0.0120000;
  // reactance 0.0204000;
  impedance 0.00600000+0.0136000j;
  impedance1 0.0120000+0.00680000j;
  impedance2 0.0120000+0.00680000j;
  shunt_resistance 200 ;
  shunt_reactance 500 ;
}
object transformer_configuration {
  name "xcon_cimxfmrcode_t5293673a";
  connect_type SINGLE_PHASE_CENTER_TAPPED;
  primary_voltage 7200.00;
  secondary_voltage 120.000;
  power_rating 25.0000;
  // the default split puts 50% of R and 80% of X on the H branch
  // resistance 0.0120000;
  // reactance 0.0204000;
  impedance 0.00600000+0.0136000j;
  impedance1 0.0120000+0.00680000j;
  impedance2 0.0120000+0.00680000j;
  shunt_resistance 200 ;
  shunt_reactance 500 ;
}
object transformer_configuration {
  name "xcon_cimxfmrcode_t5355778c";
  connect_type SINGLE_PHASE_CENTER_TAPPED;
  primary_voltage 7200.00;
  secondary_voltage 120.000;
  power_rating 10.0000;
  // the default split puts 50% of R and 80% of X on the H branch
  // resistance 0.0120000;
  // reactance 0.0204000;
  impedance 0.00600000+0.0136000j;
  impedance1 0.0120000+0.00680000j;
  impedance2 0.0120000+0.00680000j;
  shunt_resistance 200 ;
  shunt_reactance 500 ;
}
object transformer_configuration {
  name "xcon_cimxfmrcode_t5138770a";
  connect_type SINGLE_PHASE_CENTER_TAPPED;
  primary_voltage 7200.00;
  secondary_voltage 120.000;
  power_rating 10.0000;
  // the default split puts 50% of R and 80% of X on the H branch
  // resistance 0.0120000;
  // reactance 0.0204000;
  impedance 0.00600000+0.0136000j;
  impedance1 0.0120000+0.00680000j;
  impedance2 0.0120000+0.00680000j;
  shunt_resistance 200 ;
  shunt_reactance 500 ;
}
object transformer_configuration {
  name "xcon_cimxfmrcode_t226193422b";
  connect_type SINGLE_PHASE_CENTER_TAPPED;
  primary_voltage 7200.00;
  secondary_voltage 120.000;
  power_rating 15.0000;
  // the default split puts 50% of R and 80% of X on the H branch
  // resistance 0.0120000;
  // reactance 0.0204000;
  impedance 0.00600000+0.0136000j;
  impedance1 0.0120000+0.00680000j;
  impedance2 0.0120000+0.00680000j;
  shunt_resistance 200 ;
  shunt_reactance 500 ;
}
object transformer_configuration {
  name "xcon_cimxfmrcode_t5355843a";
  connect_type SINGLE_PHASE_CENTER_TAPPED;
  primary_voltage 7200.00;
  secondary_voltage 120.000;
  power_rating 10.0000;
  // the default split puts 50% of R and 80% of X on the H branch
  // resistance 0.0120000;
  // reactance 0.0204000;
  impedance 0.00600000+0.0136000j;
  impedance1 0.0120000+0.00680000j;
  impedance2 0.0120000+0.00680000j;
  shunt_resistance 200 ;
  shunt_reactance 500 ;
}
object transformer_configuration {
  name "xcon_cimxfmrcode_t5355600b";
  connect_type SINGLE_PHASE_CENTER_TAPPED;
  primary_voltage 7200.00;
  secondary_voltage 120.000;
  power_rating 25.0000;
  // the default split puts 50% of R and 80% of X on the H branch
  // resistance 0.0120000;
  // reactance 0.0204000;
  impedance 0.00600000+0.0136000j;
  impedance1 0.0120000+0.00680000j;
  impedance2 0.0120000+0.00680000j;
  shunt_resistance 200 ;
  shunt_reactance 500 ;
}
object transformer_configuration {
  name "xcon_cimxfmrcode_t225869139a";
  connect_type SINGLE_PHASE_CENTER_TAPPED;
  primary_voltage 7200.00;
  secondary_voltage 120.000;
  power_rating 15.0000;
  // the default split puts 50% of R and 80% of X on the H branch
  // resistance 0.0120000;
  // reactance 0.0204000;
  impedance 0.00600000+0.0136000j;
  impedance1 0.0120000+0.00680000j;
  impedance2 0.0120000+0.00680000j;
  shunt_resistance 200 ;
  shunt_reactance 500 ;
}
object transformer_configuration {
  name "xcon_cimxfmrcode_t5338983b";
  connect_type SINGLE_PHASE_CENTER_TAPPED;
  primary_voltage 7200.00;
  secondary_voltage 120.000;
  power_rating 5.00000;
  // the default split puts 50% of R and 80% of X on the H branch
  // resistance 0.0120000;
  // reactance 0.0204000;
  impedance 0.00600000+0.0136000j;
  impedance1 0.0120000+0.00680000j;
  impedance2 0.0120000+0.00680000j;
  shunt_resistance 200 ;
  shunt_reactance 500 ;
}
object transformer_configuration {
  name "xcon_cimxfmrcode_t5302474a";
  connect_type SINGLE_PHASE_CENTER_TAPPED;
  primary_voltage 7200.00;
  secondary_voltage 120.000;
  power_rating 25.0000;
  // the default split puts 50% of R and 80% of X on the H branch
  // resistance 0.0120000;
  // reactance 0.0204000;
  impedance 0.00600000+0.0136000j;
  impedance1 0.0120000+0.00680000j;
  impedance2 0.0120000+0.00680000j;
  shunt_resistance 200 ;
  shunt_reactance 500 ;
}
object transformer_configuration {
  name "xcon_cimxfmrcode_t5338935b";
  connect_type SINGLE_PHASE_CENTER_TAPPED;
  primary_voltage 7200.00;
  secondary_voltage 120.000;
  power_rating 15.0000;
  // the default split puts 50% of R and 80% of X on the H branch
  // resistance 0.0120000;
  // reactance 0.0204000;
  impedance 0.00600000+0.0136000j;
  impedance1 0.0120000+0.00680000j;
  impedance2 0.0120000+0.00680000j;
  shunt_resistance 200 ;
  shunt_reactance 500 ;
}
object transformer_configuration {
  name "xcon_cimxfmrcode_t5323280b";
  connect_type SINGLE_PHASE_CENTER_TAPPED;
  primary_voltage 7200.00;
  secondary_voltage 120.000;
  power_rating 25.0000;
  // the default split puts 50% of R and 80% of X on the H branch
  // resistance 0.0120000;
  // reactance 0.0204000;
  impedance 0.00600000+0.0136000j;
  impedance1 0.0120000+0.00680000j;
  impedance2 0.0120000+0.00680000j;
  shunt_resistance 200 ;
  shunt_reactance 500 ;
}
object transformer_configuration {
  name "xcon_cimxfmrcode_t5302672c";
  connect_type SINGLE_PHASE_CENTER_TAPPED;
  primary_voltage 7200.00;
  secondary_voltage 120.000;
  power_rating 25.0000;
  // the default split puts 50% of R and 80% of X on the H branch
  // resistance 0.0120000;
  // reactance 0.0204000;
  impedance 0.00600000+0.0136000j;
  impedance1 0.0120000+0.00680000j;
  impedance2 0.0120000+0.00680000j;
  shunt_resistance 200 ;
  shunt_reactance 500 ;
}
object transformer_configuration {
  name "xcon_cimxfmrcode_t5323267b";
  connect_type SINGLE_PHASE_CENTER_TAPPED;
  primary_voltage 7200.00;
  secondary_voltage 120.000;
  power_rating 25.0000;
  // the default split puts 50% of R and 80% of X on the H branch
  // resistance 0.0120000;
  // reactance 0.0204000;
  impedance 0.00600000+0.0136000j;
  impedance1 0.0120000+0.00680000j;
  impedance2 0.0120000+0.00680000j;
  shunt_resistance 200 ;
  shunt_reactance 500 ;
}
object transformer_configuration {
  name "xcon_cimxfmrcode_t5293660b";
  connect_type SINGLE_PHASE_CENTER_TAPPED;
  primary_voltage 7200.00;
  secondary_voltage 120.000;
  power_rating 25.0000;
  // the default split puts 50% of R and 80% of X on the H branch
  // resistance 0.0120000;
  // reactance 0.0204000;
  impedance 0.00600000+0.0136000j;
  impedance1 0.0120000+0.00680000j;
  impedance2 0.0120000+0.00680000j;
  shunt_resistance 200 ;
  shunt_reactance 500 ;
}
object transformer_configuration {
  name "xcon_cimxfmrcode_t21357865a";
  connect_type SINGLE_PHASE_CENTER_TAPPED;
  primary_voltage 7200.00;
  secondary_voltage 120.000;
  power_rating 25.0000;
  // the default split puts 50% of R and 80% of X on the H branch
  // resistance 0.0120000;
  // reactance 0.0204000;
  impedance 0.00600000+0.0136000j;
  impedance1 0.0120000+0.00680000j;
  impedance2 0.0120000+0.00680000j;
  shunt_resistance 200 ;
  shunt_reactance 500 ;
}
object transformer_configuration {
  name "xcon_cimxfmrcode_t227902981a";
  connect_type SINGLE_PHASE_CENTER_TAPPED;
  primary_voltage 7200.00;
  secondary_voltage 120.000;
  power_rating 37.5000;
  // the default split puts 50% of R and 80% of X on the H branch
  // resistance 0.0120000;
  // reactance 0.0204000;
  impedance 0.00600000+0.0136000j;
  impedance1 0.0120000+0.00680000j;
  impedance2 0.0120000+0.00680000j;
  shunt_resistance 200 ;
  shunt_reactance 500 ;
}
object transformer_configuration {
  name "xcon_cimxfmrcode_t5294787a";
  connect_type SINGLE_PHASE_CENTER_TAPPED;
  primary_voltage 7200.00;
  secondary_voltage 120.000;
  power_rating 10.0000;
  // the default split puts 50% of R and 80% of X on the H branch
  // resistance 0.0120000;
  // reactance 0.0204000;
  impedance 0.00600000+0.0136000j;
  impedance1 0.0120000+0.00680000j;
  impedance2 0.0120000+0.00680000j;
  shunt_resistance 200 ;
  shunt_reactance 500 ;
}
object transformer_configuration {
  name "xcon_cimxfmrcode_t5293424c";
  connect_type SINGLE_PHASE_CENTER_TAPPED;
  primary_voltage 7200.00;
  secondary_voltage 120.000;
  power_rating 37.5000;
  // the default split puts 50% of R and 80% of X on the H branch
  // resistance 0.0120000;
  // reactance 0.0204000;
  impedance 0.00600000+0.0136000j;
  impedance1 0.0120000+0.00680000j;
  impedance2 0.0120000+0.00680000j;
  shunt_resistance 200 ;
  shunt_reactance 500 ;
}
object transformer_configuration {
  name "xcon_cimxfmrcode_t5260464a";
  connect_type SINGLE_PHASE_CENTER_TAPPED;
  primary_voltage 7200.00;
  secondary_voltage 120.000;
  power_rating 37.5000;
  // the default split puts 50% of R and 80% of X on the H branch
  // resistance 0.0120000;
  // reactance 0.0204000;
  impedance 0.00600000+0.0136000j;
  impedance1 0.0120000+0.00680000j;
  impedance2 0.0120000+0.00680000j;
  shunt_resistance 200 ;
  shunt_reactance 500 ;
}
object transformer_configuration {
  name "xcon_cimxfmrcode_t226308727b";
  connect_type SINGLE_PHASE_CENTER_TAPPED;
  primary_voltage 7200.00;
  secondary_voltage 120.000;
  power_rating 50.0000;
  // the default split puts 50% of R and 80% of X on the H branch
  // resistance 0.0120000;
  // reactance 0.0204000;
  impedance 0.00600000+0.0136000j;
  impedance1 0.0120000+0.00680000j;
  impedance2 0.0120000+0.00680000j;
  shunt_resistance 200 ;
  shunt_reactance 500 ;
}
object transformer_configuration {
  name "xcon_cimxfmrcode_t21467859b";
  connect_type SINGLE_PHASE_CENTER_TAPPED;
  primary_voltage 7200.00;
  secondary_voltage 120.000;
  power_rating 37.5000;
  // the default split puts 50% of R and 80% of X on the H branch
  // resistance 0.0120000;
  // reactance 0.0204000;
  impedance 0.00600000+0.0136000j;
  impedance1 0.0120000+0.00680000j;
  impedance2 0.0120000+0.00680000j;
  shunt_resistance 200 ;
  shunt_reactance 500 ;
}
object transformer_configuration {
  name "xcon_cimxfmrcode_t21209868a";
  connect_type SINGLE_PHASE_CENTER_TAPPED;
  primary_voltage 7200.00;
  secondary_voltage 120.000;
  power_rating 25.0000;
  // the default split puts 50% of R and 80% of X on the H branch
  // resistance 0.0120000;
  // reactance 0.0204000;
  impedance 0.00600000+0.0136000j;
  impedance1 0.0120000+0.00680000j;
  impedance2 0.0120000+0.00680000j;
  shunt_resistance 200 ;
  shunt_reactance 500 ;
}
object transformer_configuration {
  name "xcon_cimxfmrcode_t28119958b";
  connect_type SINGLE_PHASE_CENTER_TAPPED;
  primary_voltage 7200.00;
  secondary_voltage 120.000;
  power_rating 15.0000;
  // the default split puts 50% of R and 80% of X on the H branch
  // resistance 0.0120000;
  // reactance 0.0204000;
  impedance 0.00600000+0.0136000j;
  impedance1 0.0120000+0.00680000j;
  impedance2 0.0120000+0.00680000j;
  shunt_resistance 200 ;
  shunt_reactance 500 ;
}
object transformer_configuration {
  name "xcon_cimxfmrcode_t5337645b";
  connect_type SINGLE_PHASE_CENTER_TAPPED;
  primary_voltage 7200.00;
  secondary_voltage 120.000;
  power_rating 25.0000;
  // the default split puts 50% of R and 80% of X on the H branch
  // resistance 0.0120000;
  // reactance 0.0204000;
  impedance 0.00600000+0.0136000j;
  impedance1 0.0120000+0.00680000j;
  impedance2 0.0120000+0.00680000j;
  shunt_resistance 200 ;
  shunt_reactance 500 ;
}
object transformer_configuration {
  name "xcon_cimxfmrcode_t5207286c";
  connect_type SINGLE_PHASE_CENTER_TAPPED;
  primary_voltage 7200.00;
  secondary_voltage 120.000;
  power_rating 10.0000;
  // the default split puts 50% of R and 80% of X on the H branch
  // resistance 0.0120000;
  // reactance 0.0204000;
  impedance 0.00600000+0.0136000j;
  impedance1 0.0120000+0.00680000j;
  impedance2 0.0120000+0.00680000j;
  shunt_resistance 200 ;
  shunt_reactance 500 ;
}
object transformer_configuration {
  name "xcon_cimxfmrcode_t5251855c";
  connect_type SINGLE_PHASE_CENTER_TAPPED;
  primary_voltage 7200.00;
  secondary_voltage 120.000;
  power_rating 25.0000;
  // the default split puts 50% of R and 80% of X on the H branch
  // resistance 0.0120000;
  // reactance 0.0204000;
  impedance 0.00600000+0.0136000j;
  impedance1 0.0120000+0.00680000j;
  impedance2 0.0120000+0.00680000j;
  shunt_resistance 200 ;
  shunt_reactance 500 ;
}
object transformer_configuration {
  name "xcon_cimxfmrcode_t5338988a";
  connect_type SINGLE_PHASE_CENTER_TAPPED;
  primary_voltage 7200.00;
  secondary_voltage 120.000;
  power_rating 10.0000;
  // the default split puts 50% of R and 80% of X on the H branch
  // resistance 0.0120000;
  // reactance 0.0204000;
  impedance 0.00600000+0.0136000j;
  impedance1 0.0120000+0.00680000j;
  impedance2 0.0120000+0.00680000j;
  shunt_resistance 200 ;
  shunt_reactance 500 ;
}
object transformer_configuration {
  name "xcon_cimxfmrcode_t5247061a";
  connect_type SINGLE_PHASE_CENTER_TAPPED;
  primary_voltage 7200.00;
  secondary_voltage 120.000;
  power_rating 25.0000;
  // the default split puts 50% of R and 80% of X on the H branch
  // resistance 0.0120000;
  // reactance 0.0204000;
  impedance 0.00600000+0.0136000j;
  impedance1 0.0120000+0.00680000j;
  impedance2 0.0120000+0.00680000j;
  shunt_resistance 200 ;
  shunt_reactance 500 ;
}
object transformer_configuration {
  name "xcon_cimxfmrcode_t5339051c";
  connect_type SINGLE_PHASE_CENTER_TAPPED;
  primary_voltage 7200.00;
  secondary_voltage 120.000;
  power_rating 25.0000;
  // the default split puts 50% of R and 80% of X on the H branch
  // resistance 0.0120000;
  // reactance 0.0204000;
  impedance 0.00600000+0.0136000j;
  impedance1 0.0120000+0.00680000j;
  impedance2 0.0120000+0.00680000j;
  shunt_resistance 200 ;
  shunt_reactance 500 ;
}
object transformer_configuration {
  name "xcon_cimxfmrcode_t5355943c";
  connect_type SINGLE_PHASE_CENTER_TAPPED;
  primary_voltage 7200.00;
  secondary_voltage 120.000;
  power_rating 25.0000;
  // the default split puts 50% of R and 80% of X on the H branch
  // resistance 0.0120000;
  // reactance 0.0204000;
  impedance 0.00600000+0.0136000j;
  impedance1 0.0120000+0.00680000j;
  impedance2 0.0120000+0.00680000j;
  shunt_resistance 200 ;
  shunt_reactance 500 ;
}
object transformer_configuration {
  name "xcon_cimxfmrcode_t5223655c";
  connect_type SINGLE_PHASE_CENTER_TAPPED;
  primary_voltage 7200.00;
  secondary_voltage 120.000;
  power_rating 15.0000;
  // the default split puts 50% of R and 80% of X on the H branch
  // resistance 0.0120000;
  // reactance 0.0204000;
  impedance 0.00600000+0.0136000j;
  impedance1 0.0120000+0.00680000j;
  impedance2 0.0120000+0.00680000j;
  shunt_resistance 200 ;
  shunt_reactance 500 ;
}
object transformer_configuration {
  name "xcon_cimxfmrcode_t5260631a";
  connect_type SINGLE_PHASE_CENTER_TAPPED;
  primary_voltage 7200.00;
  secondary_voltage 120.000;
  power_rating 15.0000;
  // the default split puts 50% of R and 80% of X on the H branch
  // resistance 0.0120000;
  // reactance 0.0204000;
  impedance 0.00600000+0.0136000j;
  impedance1 0.0120000+0.00680000j;
  impedance2 0.0120000+0.00680000j;
  shunt_resistance 200 ;
  shunt_reactance 500 ;
}
object transformer_configuration {
  name "xcon_cimxfmrcode_t21386877a";
  connect_type SINGLE_PHASE_CENTER_TAPPED;
  primary_voltage 7200.00;
  secondary_voltage 120.000;
  power_rating 15.0000;
  // the default split puts 50% of R and 80% of X on the H branch
  // resistance 0.0120000;
  // reactance 0.0204000;
  impedance 0.00600000+0.0136000j;
  impedance1 0.0120000+0.00680000j;
  impedance2 0.0120000+0.00680000j;
  shunt_resistance 200 ;
  shunt_reactance 500 ;
}
object transformer_configuration {
  name "xcon_cimxfmrcode_t226193745b";
  connect_type SINGLE_PHASE_CENTER_TAPPED;
  primary_voltage 7200.00;
  secondary_voltage 120.000;
  power_rating 25.0000;
  // the default split puts 50% of R and 80% of X on the H branch
  // resistance 0.0120000;
  // reactance 0.0204000;
  impedance 0.00600000+0.0136000j;
  impedance1 0.0120000+0.00680000j;
  impedance2 0.0120000+0.00680000j;
  shunt_resistance 200 ;
  shunt_reactance 500 ;
}
object transformer_configuration {
  name "xcon_cimxfmrcode_t21393412b";
  connect_type SINGLE_PHASE_CENTER_TAPPED;
  primary_voltage 7200.00;
  secondary_voltage 120.000;
  power_rating 25.0000;
  // the default split puts 50% of R and 80% of X on the H branch
  // resistance 0.0120000;
  // reactance 0.0204000;
  impedance 0.00600000+0.0136000j;
  impedance1 0.0120000+0.00680000j;
  impedance2 0.0120000+0.00680000j;
  shunt_resistance 200 ;
  shunt_reactance 500 ;
}
object transformer_configuration {
  name "xcon_cimxfmrcode_t5337694b";
  connect_type SINGLE_PHASE_CENTER_TAPPED;
  primary_voltage 7200.00;
  secondary_voltage 120.000;
  power_rating 15.0000;
  // the default split puts 50% of R and 80% of X on the H branch
  // resistance 0.0120000;
  // reactance 0.0204000;
  impedance 0.00600000+0.0136000j;
  impedance1 0.0120000+0.00680000j;
  impedance2 0.0120000+0.00680000j;
  shunt_resistance 200 ;
  shunt_reactance 500 ;
}
object transformer_configuration {
  name "xcon_cimxfmrcode_t21474614c";
  connect_type SINGLE_PHASE_CENTER_TAPPED;
  primary_voltage 7200.00;
  secondary_voltage 120.000;
  power_rating 25.0000;
  // the default split puts 50% of R and 80% of X on the H branch
  // resistance 0.0120000;
  // reactance 0.0204000;
  impedance 0.00600000+0.0136000j;
  impedance1 0.0120000+0.00680000j;
  impedance2 0.0120000+0.00680000j;
  shunt_resistance 200 ;
  shunt_reactance 500 ;
}
object transformer_configuration {
  name "xcon_cimxfmrcode_t5356014a";
  connect_type SINGLE_PHASE_CENTER_TAPPED;
  primary_voltage 7200.00;
  secondary_voltage 120.000;
  power_rating 10.0000;
  // the default split puts 50% of R and 80% of X on the H branch
  // resistance 0.0120000;
  // reactance 0.0204000;
  impedance 0.00600000+0.0136000j;
  impedance1 0.0120000+0.00680000j;
  impedance2 0.0120000+0.00680000j;
  shunt_resistance 200 ;
  shunt_reactance 500 ;
}
object transformer_configuration {
  name "xcon_cimxfmrcode_t5355437c";
  connect_type SINGLE_PHASE_CENTER_TAPPED;
  primary_voltage 7200.00;
  secondary_voltage 120.000;
  power_rating 25.0000;
  // the default split puts 50% of R and 80% of X on the H branch
  // resistance 0.0120000;
  // reactance 0.0204000;
  impedance 0.00600000+0.0136000j;
  impedance1 0.0120000+0.00680000j;
  impedance2 0.0120000+0.00680000j;
  shunt_resistance 200 ;
  shunt_reactance 500 ;
}
object transformer_configuration {
  name "xcon_cimxfmrcode_t21482279a";
  connect_type SINGLE_PHASE_CENTER_TAPPED;
  primary_voltage 7200.00;
  secondary_voltage 120.000;
  power_rating 15.0000;
  // the default split puts 50% of R and 80% of X on the H branch
  // resistance 0.0120000;
  // reactance 0.0204000;
  impedance 0.00600000+0.0136000j;
  impedance1 0.0120000+0.00680000j;
  impedance2 0.0120000+0.00680000j;
  shunt_resistance 200 ;
  shunt_reactance 500 ;
}
object transformer_configuration {
  name "xcon_cimxfmrcode_t5293522a";
  connect_type SINGLE_PHASE_CENTER_TAPPED;
  primary_voltage 7200.00;
  secondary_voltage 120.000;
  power_rating 15.0000;
  // the default split puts 50% of R and 80% of X on the H branch
  // resistance 0.0120000;
  // reactance 0.0204000;
  impedance 0.00600000+0.0136000j;
  impedance1 0.0120000+0.00680000j;
  impedance2 0.0120000+0.00680000j;
  shunt_resistance 200 ;
  shunt_reactance 500 ;
}
object transformer_configuration {
  name "xcon_cimxfmrcode_t5247036c";
  connect_type SINGLE_PHASE_CENTER_TAPPED;
  primary_voltage 7200.00;
  secondary_voltage 120.000;
  power_rating 10.0000;
  // the default split puts 50% of R and 80% of X on the H branch
  // resistance 0.0120000;
  // reactance 0.0204000;
  impedance 0.00600000+0.0136000j;
  impedance1 0.0120000+0.00680000j;
  impedance2 0.0120000+0.00680000j;
  shunt_resistance 200 ;
  shunt_reactance 500 ;
}
object transformer_configuration {
  name "xcon_cimxfmrcode_t5302860c";
  connect_type SINGLE_PHASE_CENTER_TAPPED;
  primary_voltage 7200.00;
  secondary_voltage 120.000;
  power_rating 37.5000;
  // the default split puts 50% of R and 80% of X on the H branch
  // resistance 0.0120000;
  // reactance 0.0204000;
  impedance 0.00600000+0.0136000j;
  impedance1 0.0120000+0.00680000j;
  impedance2 0.0120000+0.00680000j;
  shunt_resistance 200 ;
  shunt_reactance 500 ;
}
object transformer_configuration {
  name "xcon_cimxfmrcode_t28148580b";
  connect_type SINGLE_PHASE_CENTER_TAPPED;
  primary_voltage 7200.00;
  secondary_voltage 120.000;
  power_rating 25.0000;
  // the default split puts 50% of R and 80% of X on the H branch
  // resistance 0.0120000;
  // reactance 0.0204000;
  impedance 0.00600000+0.0136000j;
  impedance1 0.0120000+0.00680000j;
  impedance2 0.0120000+0.00680000j;
  shunt_resistance 200 ;
  shunt_reactance 500 ;
}
object transformer_configuration {
  name "xcon_cimxfmrcode_t21397029a";
  connect_type SINGLE_PHASE_CENTER_TAPPED;
  primary_voltage 7200.00;
  secondary_voltage 120.000;
  power_rating 25.0000;
  // the default split puts 50% of R and 80% of X on the H branch
  // resistance 0.0120000;
  // reactance 0.0204000;
  impedance 0.00600000+0.0136000j;
  impedance1 0.0120000+0.00680000j;
  impedance2 0.0120000+0.00680000j;
  shunt_resistance 200 ;
  shunt_reactance 500 ;
}
object transformer_configuration {
  name "xcon_cimxfmrcode_t5337671a";
  connect_type SINGLE_PHASE_CENTER_TAPPED;
  primary_voltage 7200.00;
  secondary_voltage 120.000;
  power_rating 15.0000;
  // the default split puts 50% of R and 80% of X on the H branch
  // resistance 0.0120000;
  // reactance 0.0204000;
  impedance 0.00600000+0.0136000j;
  impedance1 0.0120000+0.00680000j;
  impedance2 0.0120000+0.00680000j;
  shunt_resistance 200 ;
  shunt_reactance 500 ;
}
object transformer_configuration {
  name "xcon_cimxfmrcode_t21398402a";
  connect_type SINGLE_PHASE_CENTER_TAPPED;
  primary_voltage 7200.00;
  secondary_voltage 120.000;
  power_rating 15.0000;
  // the default split puts 50% of R and 80% of X on the H branch
  // resistance 0.0120000;
  // reactance 0.0204000;
  impedance 0.00600000+0.0136000j;
  impedance1 0.0120000+0.00680000j;
  impedance2 0.0120000+0.00680000j;
  shunt_resistance 200 ;
  shunt_reactance 500 ;
}
object transformer_configuration {
  name "xcon_cimxfmrcode_t28150292a";
  connect_type SINGLE_PHASE_CENTER_TAPPED;
  primary_voltage 7200.00;
  secondary_voltage 120.000;
  power_rating 15.0000;
  // the default split puts 50% of R and 80% of X on the H branch
  // resistance 0.0120000;
  // reactance 0.0204000;
  impedance 0.00600000+0.0136000j;
  impedance1 0.0120000+0.00680000j;
  impedance2 0.0120000+0.00680000j;
  shunt_resistance 200 ;
  shunt_reactance 500 ;
}
object transformer_configuration {
  name "xcon_cimxfmrcode_t5337684a";
  connect_type SINGLE_PHASE_CENTER_TAPPED;
  primary_voltage 7200.00;
  secondary_voltage 120.000;
  power_rating 25.0000;
  // the default split puts 50% of R and 80% of X on the H branch
  // resistance 0.0120000;
  // reactance 0.0204000;
  impedance 0.00600000+0.0136000j;
  impedance1 0.0120000+0.00680000j;
  impedance2 0.0120000+0.00680000j;
  shunt_resistance 200 ;
  shunt_reactance 500 ;
}
object transformer_configuration {
  name "xcon_cimxfmrcode_t225498968b";
  connect_type SINGLE_PHASE_CENTER_TAPPED;
  primary_voltage 7200.00;
  secondary_voltage 120.000;
  power_rating 15.0000;
  // the default split puts 50% of R and 80% of X on the H branch
  // resistance 0.0120000;
  // reactance 0.0204000;
  impedance 0.00600000+0.0136000j;
  impedance1 0.0120000+0.00680000j;
  impedance2 0.0120000+0.00680000j;
  shunt_resistance 200 ;
  shunt_reactance 500 ;
}
object transformer_configuration {
  name "xcon_cimxfmrcode_t228446184a";
  connect_type SINGLE_PHASE_CENTER_TAPPED;
  primary_voltage 7200.00;
  secondary_voltage 120.000;
  power_rating 25.0000;
  // the default split puts 50% of R and 80% of X on the H branch
  // resistance 0.0120000;
  // reactance 0.0204000;
  impedance 0.00600000+0.0136000j;
  impedance1 0.0120000+0.00680000j;
  impedance2 0.0120000+0.00680000j;
  shunt_resistance 200 ;
  shunt_reactance 500 ;
}
object transformer_configuration {
  name "xcon_cimxfmrcode_t5356789c";
  connect_type SINGLE_PHASE_CENTER_TAPPED;
  primary_voltage 7200.00;
  secondary_voltage 120.000;
  power_rating 15.0000;
  // the default split puts 50% of R and 80% of X on the H branch
  // resistance 0.0120000;
  // reactance 0.0204000;
  impedance 0.00600000+0.0136000j;
  impedance1 0.0120000+0.00680000j;
  impedance2 0.0120000+0.00680000j;
  shunt_resistance 200 ;
  shunt_reactance 500 ;
}
object transformer_configuration {
  name "xcon_cimxfmrcode_t226194865a";
  connect_type SINGLE_PHASE_CENTER_TAPPED;
  primary_voltage 7200.00;
  secondary_voltage 120.000;
  power_rating 25.0000;
  // the default split puts 50% of R and 80% of X on the H branch
  // resistance 0.0120000;
  // reactance 0.0204000;
  impedance 0.00600000+0.0136000j;
  impedance1 0.0120000+0.00680000j;
  impedance2 0.0120000+0.00680000j;
  shunt_resistance 200 ;
  shunt_reactance 500 ;
}
object transformer_configuration {
  name "xcon_cimxfmrcode_t5260630b";
  connect_type SINGLE_PHASE_CENTER_TAPPED;
  primary_voltage 7200.00;
  secondary_voltage 120.000;
  power_rating 15.0000;
  // the default split puts 50% of R and 80% of X on the H branch
  // resistance 0.0120000;
  // reactance 0.0204000;
  impedance 0.00600000+0.0136000j;
  impedance1 0.0120000+0.00680000j;
  impedance2 0.0120000+0.00680000j;
  shunt_resistance 200 ;
  shunt_reactance 500 ;
}
object transformer_configuration {
  name "xcon_cimxfmrcode_t5323403b";
  connect_type SINGLE_PHASE_CENTER_TAPPED;
  primary_voltage 7200.00;
  secondary_voltage 120.000;
  power_rating 15.0000;
  // the default split puts 50% of R and 80% of X on the H branch
  // resistance 0.0120000;
  // reactance 0.0204000;
  impedance 0.00600000+0.0136000j;
  impedance1 0.0120000+0.00680000j;
  impedance2 0.0120000+0.00680000j;
  shunt_resistance 200 ;
  shunt_reactance 500 ;
}
object transformer_configuration {
  name "xcon_cimxfmrcode_t5441854c";
  connect_type SINGLE_PHASE_CENTER_TAPPED;
  primary_voltage 7200.00;
  secondary_voltage 120.000;
  power_rating 25.0000;
  // the default split puts 50% of R and 80% of X on the H branch
  // resistance 0.0120000;
  // reactance 0.0204000;
  impedance 0.00600000+0.0136000j;
  impedance1 0.0120000+0.00680000j;
  impedance2 0.0120000+0.00680000j;
  shunt_resistance 200 ;
  shunt_reactance 500 ;
}
object transformer_configuration {
  name "xcon_cimxfmrcode_t226193838c";
  connect_type SINGLE_PHASE_CENTER_TAPPED;
  primary_voltage 7200.00;
  secondary_voltage 120.000;
  power_rating 25.0000;
  // the default split puts 50% of R and 80% of X on the H branch
  // resistance 0.0120000;
  // reactance 0.0204000;
  impedance 0.00600000+0.0136000j;
  impedance1 0.0120000+0.00680000j;
  impedance2 0.0120000+0.00680000j;
  shunt_resistance 200 ;
  shunt_reactance 500 ;
}
object transformer_configuration {
  name "xcon_cimxfmrcode_t5328364c";
  connect_type SINGLE_PHASE_CENTER_TAPPED;
  primary_voltage 7200.00;
  secondary_voltage 120.000;
  power_rating 25.0000;
  // the default split puts 50% of R and 80% of X on the H branch
  // resistance 0.0120000;
  // reactance 0.0204000;
  impedance 0.00600000+0.0136000j;
  impedance1 0.0120000+0.00680000j;
  impedance2 0.0120000+0.00680000j;
  shunt_resistance 200 ;
  shunt_reactance 500 ;
}
object transformer_configuration {
  name "xcon_cimxfmrcode_t5310560a";
  connect_type SINGLE_PHASE_CENTER_TAPPED;
  primary_voltage 7200.00;
  secondary_voltage 120.000;
  power_rating 15.0000;
  // the default split puts 50% of R and 80% of X on the H branch
  // resistance 0.0120000;
  // reactance 0.0204000;
  impedance 0.00600000+0.0136000j;
  impedance1 0.0120000+0.00680000j;
  impedance2 0.0120000+0.00680000j;
  shunt_resistance 200 ;
  shunt_reactance 500 ;
}
object transformer_configuration {
  name "xcon_cimxfmrcode_t226193899b";
  connect_type SINGLE_PHASE_CENTER_TAPPED;
  primary_voltage 7200.00;
  secondary_voltage 120.000;
  power_rating 25.0000;
  // the default split puts 50% of R and 80% of X on the H branch
  // resistance 0.0120000;
  // reactance 0.0204000;
  impedance 0.00600000+0.0136000j;
  impedance1 0.0120000+0.00680000j;
  impedance2 0.0120000+0.00680000j;
  shunt_resistance 200 ;
  shunt_reactance 500 ;
}
object transformer_configuration {
  name "xcon_cimxfmrcode_t226191779c";
  connect_type SINGLE_PHASE_CENTER_TAPPED;
  primary_voltage 7200.00;
  secondary_voltage 120.000;
  power_rating 25.0000;
  // the default split puts 50% of R and 80% of X on the H branch
  // resistance 0.0120000;
  // reactance 0.0204000;
  impedance 0.00600000+0.0136000j;
  impedance1 0.0120000+0.00680000j;
  impedance2 0.0120000+0.00680000j;
  shunt_resistance 200 ;
  shunt_reactance 500 ;
}
object transformer_configuration {
  name "xcon_cimxfmrcode_t5391765b";
  connect_type SINGLE_PHASE_CENTER_TAPPED;
  primary_voltage 7200.00;
  secondary_voltage 120.000;
  power_rating 25.0000;
  // the default split puts 50% of R and 80% of X on the H branch
  // resistance 0.0120000;
  // reactance 0.0204000;
  impedance 0.00600000+0.0136000j;
  impedance1 0.0120000+0.00680000j;
  impedance2 0.0120000+0.00680000j;
  shunt_resistance 200 ;
  shunt_reactance 500 ;
}
object transformer_configuration {
  name "xcon_cimxfmrcode_t5138776c";
  connect_type SINGLE_PHASE_CENTER_TAPPED;
  primary_voltage 7200.00;
  secondary_voltage 120.000;
  power_rating 15.0000;
  // the default split puts 50% of R and 80% of X on the H branch
  // resistance 0.0120000;
  // reactance 0.0204000;
  impedance 0.00600000+0.0136000j;
  impedance1 0.0120000+0.00680000j;
  impedance2 0.0120000+0.00680000j;
  shunt_resistance 200 ;
  shunt_reactance 500 ;
}
object transformer_configuration {
  name "xcon_cimxfmrcode_t5355586b";
  connect_type SINGLE_PHASE_CENTER_TAPPED;
  primary_voltage 7200.00;
  secondary_voltage 120.000;
  power_rating 25.0000;
  // the default split puts 50% of R and 80% of X on the H branch
  // resistance 0.0120000;
  // reactance 0.0204000;
  impedance 0.00600000+0.0136000j;
  impedance1 0.0120000+0.00680000j;
  impedance2 0.0120000+0.00680000j;
  shunt_resistance 200 ;
  shunt_reactance 500 ;
}
object transformer_configuration {
  name "xcon_cimxfmrcode_t5302514a";
  connect_type SINGLE_PHASE_CENTER_TAPPED;
  primary_voltage 7200.00;
  secondary_voltage 120.000;
  power_rating 10.0000;
  // the default split puts 50% of R and 80% of X on the H branch
  // resistance 0.0120000;
  // reactance 0.0204000;
  impedance 0.00600000+0.0136000j;
  impedance1 0.0120000+0.00680000j;
  impedance2 0.0120000+0.00680000j;
  shunt_resistance 200 ;
  shunt_reactance 500 ;
}
object transformer_configuration {
  name "xcon_cimxfmrcode_t5323250b";
  connect_type SINGLE_PHASE_CENTER_TAPPED;
  primary_voltage 7200.00;
  secondary_voltage 120.000;
  power_rating 15.0000;
  // the default split puts 50% of R and 80% of X on the H branch
  // resistance 0.0120000;
  // reactance 0.0204000;
  impedance 0.00600000+0.0136000j;
  impedance1 0.0120000+0.00680000j;
  impedance2 0.0120000+0.00680000j;
  shunt_resistance 200 ;
  shunt_reactance 500 ;
}
object transformer_configuration {
  name "xcon_cimxfmrcode_t226308731a";
  connect_type SINGLE_PHASE_CENTER_TAPPED;
  primary_voltage 7200.00;
  secondary_voltage 120.000;
  power_rating 50.0000;
  // the default split puts 50% of R and 80% of X on the H branch
  // resistance 0.0120000;
  // reactance 0.0204000;
  impedance 0.00600000+0.0136000j;
  impedance1 0.0120000+0.00680000j;
  impedance2 0.0120000+0.00680000j;
  shunt_resistance 200 ;
  shunt_reactance 500 ;
}
object transformer_configuration {
  name "xcon_cimxfmrcode_t5355840b";
  connect_type SINGLE_PHASE_CENTER_TAPPED;
  primary_voltage 7200.00;
  secondary_voltage 120.000;
  power_rating 25.0000;
  // the default split puts 50% of R and 80% of X on the H branch
  // resistance 0.0120000;
  // reactance 0.0204000;
  impedance 0.00600000+0.0136000j;
  impedance1 0.0120000+0.00680000j;
  impedance2 0.0120000+0.00680000j;
  shunt_resistance 200 ;
  shunt_reactance 500 ;
}
object transformer_configuration {
  name "xcon_cimxfmrcode_t227411650c";
  connect_type SINGLE_PHASE_CENTER_TAPPED;
  primary_voltage 7200.00;
  secondary_voltage 120.000;
  power_rating 25.0000;
  // the default split puts 50% of R and 80% of X on the H branch
  // resistance 0.0120000;
  // reactance 0.0204000;
  impedance 0.00600000+0.0136000j;
  impedance1 0.0120000+0.00680000j;
  impedance2 0.0120000+0.00680000j;
  shunt_resistance 200 ;
  shunt_reactance 500 ;
}
object transformer_configuration {
  name "xcon_cimxfmrcode_t225533531a";
  connect_type SINGLE_PHASE_CENTER_TAPPED;
  primary_voltage 7200.00;
  secondary_voltage 120.000;
  power_rating 25.0000;
  // the default split puts 50% of R and 80% of X on the H branch
  // resistance 0.0120000;
  // reactance 0.0204000;
  impedance 0.00600000+0.0136000j;
  impedance1 0.0120000+0.00680000j;
  impedance2 0.0120000+0.00680000j;
  shunt_resistance 200 ;
  shunt_reactance 500 ;
}
object transformer_configuration {
  name "xcon_cimxfmrcode_t5138655a";
  connect_type SINGLE_PHASE_CENTER_TAPPED;
  primary_voltage 7200.00;
  secondary_voltage 120.000;
  power_rating 15.0000;
  // the default split puts 50% of R and 80% of X on the H branch
  // resistance 0.0120000;
  // reactance 0.0204000;
  impedance 0.00600000+0.0136000j;
  impedance1 0.0120000+0.00680000j;
  impedance2 0.0120000+0.00680000j;
  shunt_resistance 200 ;
  shunt_reactance 500 ;
}
object transformer_configuration {
  name "xcon_cimxfmrcode_t226115278a";
  connect_type SINGLE_PHASE_CENTER_TAPPED;
  primary_voltage 7200.00;
  secondary_voltage 120.000;
  power_rating 15.0000;
  // the default split puts 50% of R and 80% of X on the H branch
  // resistance 0.0120000;
  // reactance 0.0204000;
  impedance 0.00600000+0.0136000j;
  impedance1 0.0120000+0.00680000j;
  impedance2 0.0120000+0.00680000j;
  shunt_resistance 200 ;
  shunt_reactance 500 ;
}
object transformer_configuration {
  name "xcon_cimxfmrcode_t5337702b";
  connect_type SINGLE_PHASE_CENTER_TAPPED;
  primary_voltage 7200.00;
  secondary_voltage 120.000;
  power_rating 25.0000;
  // the default split puts 50% of R and 80% of X on the H branch
  // resistance 0.0120000;
  // reactance 0.0204000;
  impedance 0.00600000+0.0136000j;
  impedance1 0.0120000+0.00680000j;
  impedance2 0.0120000+0.00680000j;
  shunt_resistance 200 ;
  shunt_reactance 500 ;
}
object transformer_configuration {
  name "xcon_cimxfmrcode_t5355596b";
  connect_type SINGLE_PHASE_CENTER_TAPPED;
  primary_voltage 7200.00;
  secondary_voltage 120.000;
  power_rating 15.0000;
  // the default split puts 50% of R and 80% of X on the H branch
  // resistance 0.0120000;
  // reactance 0.0204000;
  impedance 0.00600000+0.0136000j;
  impedance1 0.0120000+0.00680000j;
  impedance2 0.0120000+0.00680000j;
  shunt_resistance 200 ;
  shunt_reactance 500 ;
}
object transformer_configuration {
  name "xcon_cimxfmrcode_t225940756b";
  connect_type SINGLE_PHASE_CENTER_TAPPED;
  primary_voltage 7200.00;
  secondary_voltage 120.000;
  power_rating 37.5000;
  // the default split puts 50% of R and 80% of X on the H branch
  // resistance 0.0120000;
  // reactance 0.0204000;
  impedance 0.00600000+0.0136000j;
  impedance1 0.0120000+0.00680000j;
  impedance2 0.0120000+0.00680000j;
  shunt_resistance 200 ;
  shunt_reactance 500 ;
}
object transformer_configuration {
  name "xcon_cimxfmrcode_t5294845a";
  connect_type SINGLE_PHASE_CENTER_TAPPED;
  primary_voltage 7200.00;
  secondary_voltage 120.000;
  power_rating 15.0000;
  // the default split puts 50% of R and 80% of X on the H branch
  // resistance 0.0120000;
  // reactance 0.0204000;
  impedance 0.00600000+0.0136000j;
  impedance1 0.0120000+0.00680000j;
  impedance2 0.0120000+0.00680000j;
  shunt_resistance 200 ;
  shunt_reactance 500 ;
}
object transformer_configuration {
  name "xcon_cimxfmrcode_t5337679a";
  connect_type SINGLE_PHASE_CENTER_TAPPED;
  primary_voltage 7200.00;
  secondary_voltage 120.000;
  power_rating 15.0000;
  // the default split puts 50% of R and 80% of X on the H branch
  // resistance 0.0120000;
  // reactance 0.0204000;
  impedance 0.00600000+0.0136000j;
  impedance1 0.0120000+0.00680000j;
  impedance2 0.0120000+0.00680000j;
  shunt_resistance 200 ;
  shunt_reactance 500 ;
}
object transformer_configuration {
  name "xcon_cimxfmrcode_t5302405a";
  connect_type SINGLE_PHASE_CENTER_TAPPED;
  primary_voltage 7200.00;
  secondary_voltage 120.000;
  power_rating 15.0000;
  // the default split puts 50% of R and 80% of X on the H branch
  // resistance 0.0120000;
  // reactance 0.0204000;
  impedance 0.00600000+0.0136000j;
  impedance1 0.0120000+0.00680000j;
  impedance2 0.0120000+0.00680000j;
  shunt_resistance 200 ;
  shunt_reactance 500 ;
}
object transformer_configuration {
  name "xcon_cimxfmrcode_t5260555a";
  connect_type SINGLE_PHASE_CENTER_TAPPED;
  primary_voltage 7200.00;
  secondary_voltage 120.000;
  power_rating 37.5000;
  // the default split puts 50% of R and 80% of X on the H branch
  // resistance 0.0120000;
  // reactance 0.0204000;
  impedance 0.00600000+0.0136000j;
  impedance1 0.0120000+0.00680000j;
  impedance2 0.0120000+0.00680000j;
  shunt_resistance 200 ;
  shunt_reactance 500 ;
}
object transformer_configuration {
  name "xcon_cimxfmrcode_t5337718a";
  connect_type SINGLE_PHASE_CENTER_TAPPED;
  primary_voltage 7200.00;
  secondary_voltage 120.000;
  power_rating 10.0000;
  // the default split puts 50% of R and 80% of X on the H branch
  // resistance 0.0120000;
  // reactance 0.0204000;
  impedance 0.00600000+0.0136000j;
  impedance1 0.0120000+0.00680000j;
  impedance2 0.0120000+0.00680000j;
  shunt_resistance 200 ;
  shunt_reactance 500 ;
}
object transformer_configuration {
  name "xcon_cimxfmrcode_t5337709b";
  connect_type SINGLE_PHASE_CENTER_TAPPED;
  primary_voltage 7200.00;
  secondary_voltage 120.000;
  power_rating 15.0000;
  // the default split puts 50% of R and 80% of X on the H branch
  // resistance 0.0120000;
  // reactance 0.0204000;
  impedance 0.00600000+0.0136000j;
  impedance1 0.0120000+0.00680000j;
  impedance2 0.0120000+0.00680000j;
  shunt_resistance 200 ;
  shunt_reactance 500 ;
}
object transformer_configuration {
  name "xcon_cimxfmrcode_t21399752a";
  connect_type SINGLE_PHASE_CENTER_TAPPED;
  primary_voltage 7200.00;
  secondary_voltage 120.000;
  power_rating 25.0000;
  // the default split puts 50% of R and 80% of X on the H branch
  // resistance 0.0120000;
  // reactance 0.0204000;
  impedance 0.00600000+0.0136000j;
  impedance1 0.0120000+0.00680000j;
  impedance2 0.0120000+0.00680000j;
  shunt_resistance 200 ;
  shunt_reactance 500 ;
}
object transformer_configuration {
  name "xcon_cimxfmrcode_t226194421c";
  connect_type SINGLE_PHASE_CENTER_TAPPED;
  primary_voltage 7200.00;
  secondary_voltage 120.000;
  power_rating 25.0000;
  // the default split puts 50% of R and 80% of X on the H branch
  // resistance 0.0120000;
  // reactance 0.0204000;
  impedance 0.00600000+0.0136000j;
  impedance1 0.0120000+0.00680000j;
  impedance2 0.0120000+0.00680000j;
  shunt_resistance 200 ;
  shunt_reactance 500 ;
}
object transformer_configuration {
  name "xcon_cimxfmrcode_t5339016b";
  connect_type SINGLE_PHASE_CENTER_TAPPED;
  primary_voltage 7200.00;
  secondary_voltage 120.000;
  power_rating 25.0000;
  // the default split puts 50% of R and 80% of X on the H branch
  // resistance 0.0120000;
  // reactance 0.0204000;
  impedance 0.00600000+0.0136000j;
  impedance1 0.0120000+0.00680000j;
  impedance2 0.0120000+0.00680000j;
  shunt_resistance 200 ;
  shunt_reactance 500 ;
}
object transformer_configuration {
  name "xcon_cimxfmrcode_t5138260a";
  connect_type SINGLE_PHASE_CENTER_TAPPED;
  primary_voltage 7200.00;
  secondary_voltage 120.000;
  power_rating 15.0000;
  // the default split puts 50% of R and 80% of X on the H branch
  // resistance 0.0120000;
  // reactance 0.0204000;
  impedance 0.00600000+0.0136000j;
  impedance1 0.0120000+0.00680000j;
  impedance2 0.0120000+0.00680000j;
  shunt_resistance 200 ;
  shunt_reactance 500 ;
}
object transformer_configuration {
  name "xcon_cimxfmrcode_t226264795a";
  connect_type SINGLE_PHASE_CENTER_TAPPED;
  primary_voltage 7200.00;
  secondary_voltage 120.000;
  power_rating 25.0000;
  // the default split puts 50% of R and 80% of X on the H branch
  // resistance 0.0120000;
  // reactance 0.0204000;
  impedance 0.00600000+0.0136000j;
  impedance1 0.0120000+0.00680000j;
  impedance2 0.0120000+0.00680000j;
  shunt_resistance 200 ;
  shunt_reactance 500 ;
}
object transformer_configuration {
  name "xcon_cimxfmrcode_t5207287b";
  connect_type SINGLE_PHASE_CENTER_TAPPED;
  primary_voltage 7200.00;
  secondary_voltage 120.000;
  power_rating 25.0000;
  // the default split puts 50% of R and 80% of X on the H branch
  // resistance 0.0120000;
  // reactance 0.0204000;
  impedance 0.00600000+0.0136000j;
  impedance1 0.0120000+0.00680000j;
  impedance2 0.0120000+0.00680000j;
  shunt_resistance 200 ;
  shunt_reactance 500 ;
}
object transformer_configuration {
  name "xcon_cimxfmrcode_t5260494b";
  connect_type SINGLE_PHASE_CENTER_TAPPED;
  primary_voltage 7200.00;
  secondary_voltage 120.000;
  power_rating 37.5000;
  // the default split puts 50% of R and 80% of X on the H branch
  // resistance 0.0120000;
  // reactance 0.0204000;
  impedance 0.00600000+0.0136000j;
  impedance1 0.0120000+0.00680000j;
  impedance2 0.0120000+0.00680000j;
  shunt_resistance 200 ;
  shunt_reactance 500 ;
}
object transformer_configuration {
  name "xcon_cimxfmrcode_t5262075c";
  connect_type SINGLE_PHASE_CENTER_TAPPED;
  primary_voltage 7200.00;
  secondary_voltage 120.000;
  power_rating 25.0000;
  // the default split puts 50% of R and 80% of X on the H branch
  // resistance 0.0120000;
  // reactance 0.0204000;
  impedance 0.00600000+0.0136000j;
  impedance1 0.0120000+0.00680000j;
  impedance2 0.0120000+0.00680000j;
  shunt_resistance 200 ;
  shunt_reactance 500 ;
}
object transformer_configuration {
  name "xcon_cimxfmrcode_t5339047a";
  connect_type SINGLE_PHASE_CENTER_TAPPED;
  primary_voltage 7200.00;
  secondary_voltage 120.000;
  power_rating 25.0000;
  // the default split puts 50% of R and 80% of X on the H branch
  // resistance 0.0120000;
  // reactance 0.0204000;
  impedance 0.00600000+0.0136000j;
  impedance1 0.0120000+0.00680000j;
  impedance2 0.0120000+0.00680000j;
  shunt_resistance 200 ;
  shunt_reactance 500 ;
}
object transformer_configuration {
  name "xcon_cimxfmrcode_t226192926a";
  connect_type SINGLE_PHASE_CENTER_TAPPED;
  primary_voltage 7200.00;
  secondary_voltage 120.000;
  power_rating 25.0000;
  // the default split puts 50% of R and 80% of X on the H branch
  // resistance 0.0120000;
  // reactance 0.0204000;
  impedance 0.00600000+0.0136000j;
  impedance1 0.0120000+0.00680000j;
  impedance2 0.0120000+0.00680000j;
  shunt_resistance 200 ;
  shunt_reactance 500 ;
}
object transformer_configuration {
  name "xcon_cimxfmrcode_t21469960b";
  connect_type SINGLE_PHASE_CENTER_TAPPED;
  primary_voltage 7200.00;
  secondary_voltage 120.000;
  power_rating 25.0000;
  // the default split puts 50% of R and 80% of X on the H branch
  // resistance 0.0120000;
  // reactance 0.0204000;
  impedance 0.00600000+0.0136000j;
  impedance1 0.0120000+0.00680000j;
  impedance2 0.0120000+0.00680000j;
  shunt_resistance 200 ;
  shunt_reactance 500 ;
}
object transformer_configuration {
  name "xcon_cimxfmrcode_t5293480a";
  connect_type SINGLE_PHASE_CENTER_TAPPED;
  primary_voltage 7200.00;
  secondary_voltage 120.000;
  power_rating 15.0000;
  // the default split puts 50% of R and 80% of X on the H branch
  // resistance 0.0120000;
  // reactance 0.0204000;
  impedance 0.00600000+0.0136000j;
  impedance1 0.0120000+0.00680000j;
  impedance2 0.0120000+0.00680000j;
  shunt_resistance 200 ;
  shunt_reactance 500 ;
}
object transformer_configuration {
  name "xcon_cimxfmrcode_t5321881a";
  connect_type SINGLE_PHASE_CENTER_TAPPED;
  primary_voltage 7200.00;
  secondary_voltage 120.000;
  power_rating 25.0000;
  // the default split puts 50% of R and 80% of X on the H branch
  // resistance 0.0120000;
  // reactance 0.0204000;
  impedance 0.00600000+0.0136000j;
  impedance1 0.0120000+0.00680000j;
  impedance2 0.0120000+0.00680000j;
  shunt_resistance 200 ;
  shunt_reactance 500 ;
}
object transformer_configuration {
  name "xcon_cimxfmrcode_t5356791c";
  connect_type SINGLE_PHASE_CENTER_TAPPED;
  primary_voltage 7200.00;
  secondary_voltage 120.000;
  power_rating 37.5000;
  // the default split puts 50% of R and 80% of X on the H branch
  // resistance 0.0120000;
  // reactance 0.0204000;
  impedance 0.00600000+0.0136000j;
  impedance1 0.0120000+0.00680000j;
  impedance2 0.0120000+0.00680000j;
  shunt_resistance 200 ;
  shunt_reactance 500 ;
}
object transformer_configuration {
  name "xcon_cimxfmrcode_t5207290a";
  connect_type SINGLE_PHASE_CENTER_TAPPED;
  primary_voltage 7200.00;
  secondary_voltage 120.000;
  power_rating 25.0000;
  // the default split puts 50% of R and 80% of X on the H branch
  // resistance 0.0120000;
  // reactance 0.0204000;
  impedance 0.00600000+0.0136000j;
  impedance1 0.0120000+0.00680000j;
  impedance2 0.0120000+0.00680000j;
  shunt_resistance 200 ;
  shunt_reactance 500 ;
}
object transformer_configuration {
  name "xcon_cimxfmrcode_t5338968c";
  connect_type SINGLE_PHASE_CENTER_TAPPED;
  primary_voltage 7200.00;
  secondary_voltage 120.000;
  power_rating 37.5000;
  // the default split puts 50% of R and 80% of X on the H branch
  // resistance 0.0120000;
  // reactance 0.0204000;
  impedance 0.00600000+0.0136000j;
  impedance1 0.0120000+0.00680000j;
  impedance2 0.0120000+0.00680000j;
  shunt_resistance 200 ;
  shunt_reactance 500 ;
}
object transformer_configuration {
  name "xcon_cimxfmrcode_t21149420a";
  connect_type SINGLE_PHASE_CENTER_TAPPED;
  primary_voltage 7200.00;
  secondary_voltage 120.000;
  power_rating 25.0000;
  // the default split puts 50% of R and 80% of X on the H branch
  // resistance 0.0120000;
  // reactance 0.0204000;
  impedance 0.00600000+0.0136000j;
  impedance1 0.0120000+0.00680000j;
  impedance2 0.0120000+0.00680000j;
  shunt_resistance 200 ;
  shunt_reactance 500 ;
}
object transformer_configuration {
  name "xcon_cimxfmrcode_t5328365b";
  connect_type SINGLE_PHASE_CENTER_TAPPED;
  primary_voltage 7200.00;
  secondary_voltage 120.000;
  power_rating 37.5000;
  // the default split puts 50% of R and 80% of X on the H branch
  // resistance 0.0120000;
  // reactance 0.0204000;
  impedance 0.00600000+0.0136000j;
  impedance1 0.0120000+0.00680000j;
  impedance2 0.0120000+0.00680000j;
  shunt_resistance 200 ;
  shunt_reactance 500 ;
}
object transformer_configuration {
  name "xcon_cimxfmrcode_t225897846a";
  connect_type SINGLE_PHASE_CENTER_TAPPED;
  primary_voltage 7200.00;
  secondary_voltage 120.000;
  power_rating 15.0000;
  // the default split puts 50% of R and 80% of X on the H branch
  // resistance 0.0120000;
  // reactance 0.0204000;
  impedance 0.00600000+0.0136000j;
  impedance1 0.0120000+0.00680000j;
  impedance2 0.0120000+0.00680000j;
  shunt_resistance 200 ;
  shunt_reactance 500 ;
}
object transformer_configuration {
  name "xcon_cimxfmrcode_t21451973b";
  connect_type SINGLE_PHASE_CENTER_TAPPED;
  primary_voltage 7200.00;
  secondary_voltage 120.000;
  power_rating 15.0000;
  // the default split puts 50% of R and 80% of X on the H branch
  // resistance 0.0120000;
  // reactance 0.0204000;
  impedance 0.00600000+0.0136000j;
  impedance1 0.0120000+0.00680000j;
  impedance2 0.0120000+0.00680000j;
  shunt_resistance 200 ;
  shunt_reactance 500 ;
}
object transformer_configuration {
  name "xcon_cimxfmrcode_t5293521a";
  connect_type SINGLE_PHASE_CENTER_TAPPED;
  primary_voltage 7200.00;
  secondary_voltage 120.000;
  power_rating 10.0000;
  // the default split puts 50% of R and 80% of X on the H branch
  // resistance 0.0120000;
  // reactance 0.0204000;
  impedance 0.00600000+0.0136000j;
  impedance1 0.0120000+0.00680000j;
  impedance2 0.0120000+0.00680000j;
  shunt_resistance 200 ;
  shunt_reactance 500 ;
}
object transformer_configuration {
  name "xcon_cimxfmrcode_t5293666c";
  connect_type SINGLE_PHASE_CENTER_TAPPED;
  primary_voltage 7200.00;
  secondary_voltage 120.000;
  power_rating 10.0000;
  // the default split puts 50% of R and 80% of X on the H branch
  // resistance 0.0120000;
  // reactance 0.0204000;
  impedance 0.00600000+0.0136000j;
  impedance1 0.0120000+0.00680000j;
  impedance2 0.0120000+0.00680000j;
  shunt_resistance 200 ;
  shunt_reactance 500 ;
}
object transformer_configuration {
  name "xcon_cimxfmrcode_t5356008a";
  connect_type SINGLE_PHASE_CENTER_TAPPED;
  primary_voltage 7200.00;
  secondary_voltage 120.000;
  power_rating 15.0000;
  // the default split puts 50% of R and 80% of X on the H branch
  // resistance 0.0120000;
  // reactance 0.0204000;
  impedance 0.00600000+0.0136000j;
  impedance1 0.0120000+0.00680000j;
  impedance2 0.0120000+0.00680000j;
  shunt_resistance 200 ;
  shunt_reactance 500 ;
}
object transformer_configuration {
  name "xcon_cimxfmrcode_t5323237b";
  connect_type SINGLE_PHASE_CENTER_TAPPED;
  primary_voltage 7200.00;
  secondary_voltage 120.000;
  power_rating 15.0000;
  // the default split puts 50% of R and 80% of X on the H branch
  // resistance 0.0120000;
  // reactance 0.0204000;
  impedance 0.00600000+0.0136000j;
  impedance1 0.0120000+0.00680000j;
  impedance2 0.0120000+0.00680000j;
  shunt_resistance 200 ;
  shunt_reactance 500 ;
}
object transformer_configuration {
  name "xcon_cimxfmrcode_t21389831a";
  connect_type SINGLE_PHASE_CENTER_TAPPED;
  primary_voltage 7200.00;
  secondary_voltage 120.000;
  power_rating 15.0000;
  // the default split puts 50% of R and 80% of X on the H branch
  // resistance 0.0120000;
  // reactance 0.0204000;
  impedance 0.00600000+0.0136000j;
  impedance1 0.0120000+0.00680000j;
  impedance2 0.0120000+0.00680000j;
  shunt_resistance 200 ;
  shunt_reactance 500 ;
}
object transformer_configuration {
  name "xcon_cimxfmrcode_t5391740b";
  connect_type SINGLE_PHASE_CENTER_TAPPED;
  primary_voltage 7200.00;
  secondary_voltage 120.000;
  power_rating 10.0000;
  // the default split puts 50% of R and 80% of X on the H branch
  // resistance 0.0120000;
  // reactance 0.0204000;
  impedance 0.00600000+0.0136000j;
  impedance1 0.0120000+0.00680000j;
  impedance2 0.0120000+0.00680000j;
  shunt_resistance 200 ;
  shunt_reactance 500 ;
}
object transformer_configuration {
  name "xcon_cimxfmrcode_t5260562a";
  connect_type SINGLE_PHASE_CENTER_TAPPED;
  primary_voltage 7200.00;
  secondary_voltage 120.000;
  power_rating 37.5000;
...